Version 4
SHEET 1 880 680
SYMBOL 3ph_PWM_Gen 192 160 R0
WINDOW 39 0 0 Left 2
SYMATTR InstName X1
TEXT 170 212 Left 2 !.tran 1
